<<<<<<< HEAD
/*--------------------------------*- C++ -*----------------------------------*\
| =========                 |                                                |
| \\      /  F ield         | cfMesh: A library for mesh generation          | 
|  \\    /   O peration     |                                                |
|   \\  /    A nd           | Author: Franjo Juretic                         | 
|    \\/     M anipulation  | E-mail: franjo.juretic@c-fields.com            |
=======
/*---------------------------------------------------------------------------*\
| =========                 |                                                 |
| \\      /  F ield         | OpenFOAM: The Open Source CFD Toolbox           |
|  \\    /   O peration     | Version:  1.0                                   |
|   \\  /    A nd           | Web:      http://www.openfoam.org               |
|    \\/     M anipulation  |                                                 |
>>>>>>> parent of aee3c13... Removed Fan from tutorials
\*---------------------------------------------------------------------------*/

FoamFile
{
<<<<<<< HEAD
    version   2.0;
    format    ascii;
    class     dictionary;
    location  "system";
    object    meshDict;
=======
    version         2.0;
    format          ascii;

    root            "";
    case            "";
    instance        "";
    local           "";

    class           dictionary;
    object          controlDict;
>>>>>>> parent of aee3c13... Removed Fan from tutorials
}

// * * * * * * * * * * * * * * * * * * * * * * * * * * * * * * * * * * * * * //

<<<<<<< HEAD
application     ;
=======
application icoFoam;
>>>>>>> parent of aee3c13... Removed Fan from tutorials

startFrom       latestTime;

startTime       0;

stopAt          endTime;

endTime         10;

deltaT          0.05;

writeControl    timeStep;

writeInterval   20;

purgeWrite      0;

writeFormat     binary;

writePrecision  6;

writeCompression uncompressed;

timeFormat      general;

timePrecision   6;

runTimeModifiable yes;


// ************************************************************************* //
