<<<<<<< HEAD
/*--------------------------------*- C++ -*----------------------------------*\
| =========                 |                                                |
| \\      /  F ield         | cfMesh: A library for mesh generation          | 
|  \\    /   O peration     |                                                |
|   \\  /    A nd           | Author: Franjo Juretic                         | 
|    \\/     M anipulation  | E-mail: franjo.juretic@c-fields.com            |
\*---------------------------------------------------------------------------*/

FoamFile
{
    version   2.0;
    format    ascii;
    class     dictionary;
    location  "system";
    object    meshDict;
}
=======
// The FOAM Project // File: adaptiveProperties 
/*
-------------------------------------------------------------------------------
 =========         | dictionary
 \\      /         |
  \\    /          | Name: adaptiveProperties 
   \\  /           | Family: Data file
    \\/            |
    F ield         | FOAM version: 1.9.6
    O peration     | Product of Nabla Ltd.
    A and          |
    M anipulation  | Email: Enquiries@Nabla.co.uk
-------------------------------------------------------------------------------
*/

version  0.5;
format   ascii;

root     "/home/larson/franjo/foam/run";
case     "thetaTest";
instance "system";
local    "";

note     "fvSchemes for Foam";

class    dictionary;
object   adaptiveProperties;
>>>>>>> parent of aee3c13... Removed Fan from tutorials

// * * * * * * * * * * * * * * * * * * * * * * * * * * * * * * * * * * * * * //

surfaceFile "Fan1.ftr";

maxCellSize 40;

boundaryCellSize 10;

<<<<<<< HEAD
minCellSize 1.25;

localRefinement
{
    // outer rim
    patch0
    {
        cellSize 5;
    }
    // blade seat edge
    patch5
    {
        cellSize 1.25;
    }

    // shaft
    patch6
    {
        cellSize 10;
    }

    // thin edges at blade ends
    patch37
    {
        cellSize 0.625;
    }
    patch55
    {
        cellSize 0.625;
    }
    patch72
    {
        cellSize 0.625;
    }
    patch89
    {
        cellSize 0.625;
    }
    patch86
    {
        cellSize 0.625;
    }
    patch114
    {
        cellSize 0.625;
    }
    patch138
    {
        cellSize 0.625;
    }
    patch157
    {
        cellSize 0.625;
    }

    // blades
    patch8
    {
        cellSize 5;
    }
    patch11
    {
        cellSize 5;
    }
    patch12
    {
        cellSize 5;
    }
    patch16
    {
        cellSize 5;
    }
    patch19
    {
        cellSize 5;
    }
    patch24
    {
        cellSize 5;
    }
    patch27
    {
        cellSize 5;
    }
    patch30
    {
        cellSize 5;
    }
);

keepCellsIntersectingPatches
{
    patch0
    {
        keepCells 1;
    }
    patch1
    {
        keepCells 1;
    }
    patch2
    {
        keepCells 1;
    }
}
=======
patchCellSize
19
(
    // outer rim
    patch0 5
    // blade seat edge
    patch5 1.25

    // shaft
    patch6 10

    // thin edges at blade ends
    patch37 0.625
    patch55 0.625
    patch72 0.625
    patch89 0.625
    patch86 0.625
    patch114 0.625
    patch138 0.625
    patch157 0.625

    // blades
    patch8   5
    patch11  5
        patch12  5
    patch16  5
    patch19  5
    patch24  5
    patch27  5
    patch30  5
);

subsetFileName  "Fan1.sftr";

subsetCellSize
1
(
    _refine_1 2.5
);

keepCellsIntersectingPatches
3
(
    patch0
    patch1
    patch2
);
>>>>>>> parent of aee3c13... Removed Fan from tutorials

keepCellsIntersectingBoundary 1;
checkForGluedMesh 1;
 
// ************************************************************************* //
