/*--------------------------------*- C++ -*----------------------------------*\
| =========                 |                                                |
| \\      /  F ield         | cfMesh: A library for mesh generation          |
|  \\    /   O peration     |                                                |
|   \\  /    A nd           | Author: Franjo Juretic                         |
|    \\/     M anipulation  | E-mail: franjo.juretic@c-fields.com            |
\*---------------------------------------------------------------------------*/
FoamFile
{
    version   2.0;
    format    ascii;
    class     dictionary;
    object    controlDict;
}
// * * * * * * * * * * * * * * * * * * * * * * * * * * * * * * * * * * * * * //

application         true;  // Optional : no default application to run

startFrom           latestTime;

startTime           0;

stopAt              endTime;

endTime             2;

deltaT              0.001;

writeControl        timeStep;

writeInterval       100;

writeFormat         binary;

runTimeModifiable   yes;

// ************************************************************************* //
