/*--------------------------------*- C++ -*----------------------------------*\
| =========                 |                                                |
| \\      /  F ield         | cfMesh: A library for mesh generation          |
|  \\    /   O peration     |                                                |
|   \\  /    A nd           | Author: Franjo Juretic                         |
|    \\/     M anipulation  | E-mail: franjo.juretic@c-fields.com            |
\*---------------------------------------------------------------------------*/
FoamFile
{
    version     2;
    format      ascii;
    class       dictionary;
    location    "system";
    object      meshDict;
}

// * * * * * * * * * * * * * * * * * * * * * * * * * * * * * * * * * * * * * //
maxCellSize     40;
surfaceFile     "bunnyWrapped.stl";

objectRefinements
{
    ear1
    {
        type        cone;
        cellSize    20.1;
        p0          (-100 1873 -320);
        p1          (-560 1400 0);
        radius0     200;
        radius1     200;
    }

    ear2
    {
        type        cone;
        cellSize    20.1;
        p0          (-650 1873 -620);
        p1          (-670 1300 0);
        radius0     200;
        radius1     200;
    }

/*
    insideTheBody
    {
        type        sphere;
        cellSize    20.1;
        centre      (0 700 0);
        radius      50;
        refinementThickness 50;
    }

    muzzlePiercing
    {
        type        line;
        cellSize    20.1;
        p0          (-750 1000 450);
        p1          (-750 1500 450);
    }

    tail
    {
        type        box;
        cellSize    20.1;
        centre      (500 500 150);
        lengthX     100;
        lengthY     150;
        lengthZ     200;
    }
*/
}

workflowControls
{
}

// ************************************************************************* //
